Circuit: * C:\Users\Pawel\Desktop\projekt\spice\6n6p.asc

WARNING: Less than two connections to node NC_01.  This node is used by R16.
Direct Newton iteration failed to find .op point.  (Use ".option noopiter" to skip.)
Starting Gmin stepping
Gmin = 10
vernier = 0.5
Gmin = 1.86414
vernier = 0.25
vernier = 0.125
vernier = 0.0625
vernier = 0.03125
Gmin = 1.77984
vernier = 0.015625
vernier = 0.0078125
vernier = 0.00390625
Gmin = 1.75574
vernier = 0.00195313
vernier = 0.000976563
vernier = 0.000488281
Gmin = 0
Gmin stepping succeeded in finding the operating point.


Date: Thu Feb 15 10:32:59 2024
Total elapsed time: 0.127 seconds.

tnom = 27
temp = 27
method = trap
totiter = 1406
traniter = 0
tranpoints = 0
accept = 0
rejected = 0
matrix size = 59
fillins = 125
solver = Normal
Matrix Compiler1:     582 opcodes
Matrix Compiler2: off  [0.5]/0.7/0.7

