Circuit: * C:\Users\Pawel\Desktop\schematics\PP\6n6p.asc

WARNING: Less than two connections to node NC_01.  This node is used by R16.
Direct Newton iteration failed to find .op point.  (Use ".option noopiter" to skip.)
Starting Gmin stepping
Gmin = 10
Gmin = 1.07374
vernier = 0.5
vernier = 0.25
vernier = 0.125
vernier = 0.0625
Gmin = 1.08884
vernier = 0.03125
vernier = 0.015625
Gmin = 1.03122
vernier = 0.0078125
vernier = 0.0104167
vernier = 0.00520833
Gmin = 1.01988
vernier = 0.00260417
vernier = 0.00347222
Gmin = 1.01305
vernier = 0.00173611
vernier = 0.00231481
vernier = 0.00115741
Gmin = 1.01085
vernier = 0.00154321
vernier = 0.000771604
Gmin = 1.00871
vernier = 0.00102881
vernier = 0.000514403
Gmin = 1.00715
vernier = 0.00068587
vernier = 0.000514403
Gmin = 1.0059
vernier = 0.00068587
vernier = 0.000514402
Gmin = 0
Gmin stepping failed

Starting source stepping with srcstepmethod=0
Source Step = 3.0303%
Source Step = 33.3333%
Source Step = 63.6364%
Source Step = 93.9394%
Source stepping succeeded in finding the operating point.


Date: Wed Feb 21 22:51:21 2024
Total elapsed time: 0.806 seconds.

tnom = 27
temp = 27
method = modified trap
totiter = 26769
traniter = 20417
tranpoints = 6342
accept = 4612
rejected = 1730
matrix size = 58
fillins = 137
solver = Normal
Thread vector: 9.6/6.7[5] 2.8/1.5[5] 2.9/2.0[3] 0.2/0.5[1]  2592/500
Matrix Compiler1: 11.08 KB object code size  1.5/0.7/[0.4]
Matrix Compiler2: 8.34 KB object code size  0.9/1.0/[0.4]

